Rd 1 Ladder
GC	1	4	165.0
GW	1	4	139.0
SY	1	4	134.4
CA	1	4	101.2
BL	1	0	98.8
ME	1	0	74.4
CW	1	0	71.9
RI	1	0	60.6
Rd 2 Ladder
GW	2	8	143.3
SY	2	8	141.4
GC	2	8	139.5
CA	2	8	103.6
PA	1	4	171.4
FR	1	4	132.9
ES	1	4	128.9
ME	2	4	115.3
GE	1	4	111.8
AD	1	0	90.0
SK	1	0	89.5
BL	2	0	86.6
HW	1	0	77.6
RI	2	0	76.2
CW	2	0	69.9
NM	1	0	67.8
WB	1	0	58.7
WC	1	0	58.3
Rd 3 Ladder
GW	3	12	165.7
SY	3	12	136.3
PA	2	8	149.4
ME	3	8	141.5
FR	2	8	133.6
GE	2	8	118.6
CA	2	8	103.6
GC	3	8	98.7
SK	2	4	104.5
WB	2	4	101.7
ES	2	4	97.2
BL	2	0	86.6
AD	2	0	84.0
RI	3	0	75.9
CW	3	0	74.2
NM	2	0	70.9
HW	2	0	60.5
WC	2	0	49.6
Rd 4 Ladder
GW	3	12	165.7
FR	3	12	146.7
ME	4	12	130.7
GE	3	12	129.3
SY	4	12	125.3
CA	3	12	125.1
WB	3	8	138.3
PA	3	8	128.3
ES	3	8	99.3
GC	3	8	98.7
SK	3	4	101.3
CW	4	4	84.3
RI	4	4	82.0
BL	3	0	83.8
AD	3	0	73.3
NM	3	0	66.4
HW	3	0	62.4
WC	3	0	42.8
Rd 5 Ladder
GW	4	16	155.4
ME	5	16	129.4
SY	5	16	126.9
CA	4	16	123.2
GE	4	16	121.9
PA	4	12	147.3
FR	4	12	129.2
WB	4	8	124.9
SK	4	8	103.5
GC	4	8	91.0
CW	5	8	87.9
ES	4	8	81.9
BL	4	4	108.3
RI	5	4	83.1
AD	4	0	75.2
HW	4	0	68.7
NM	4	0	59.5
WC	4	0	50.5
Rd 6 Ladder
GW	5	20	144.0
GE	5	20	138.4
PA	5	16	139.9
SY	5	16	126.9
ME	6	16	118.5
CA	5	16	117.1
FR	5	12	122.3
GC	5	12	105.5
ES	5	12	90.8
BL	5	8	112.9
WB	5	8	111.6
SK	5	8	102.5
CW	5	8	87.9
AD	5	4	81.8
RI	6	4	79.5
WC	5	4	65.0
HW	5	0	64.8
NM	5	0	56.5
Rd 7 Ladder
GE	6	24	141.3
SY	6	20	135.3
GW	6	20	129.7
CA	6	20	117.5
PA	6	16	121.2
ME	6	16	118.5
ES	6	16	92.7
WB	6	12	123.0
FR	6	12	108.0
CW	6	12	97.6
GC	6	12	93.9
BL	6	8	105.0
SK	6	8	89.6
WC	6	8	75.5
AD	6	4	84.1
RI	6	4	79.5
HW	6	4	77.1
NM	6	0	57.0
Rd 8 Ladder
GE	7	28	135.4
SY	7	24	147.7
GW	7	24	136.3
ME	7	20	126.1
PA	7	20	120.3
CA	7	20	112.1
ES	7	18	93.7
FR	7	16	111.7
GC	7	16	101.0
CW	7	14	97.9
WB	7	12	114.7
AD	7	8	96.6
BL	7	8	94.2
SK	7	8	89.3
WC	7	8	74.1
RI	7	4	75.5
HW	7	4	69.9
NM	7	0	57.3
Rd 9 Ladder
SY	8	28	147.0
GE	8	28	129.5
GW	8	24	126.3
ME	8	24	124.3
ES	8	22	95.2
FR	8	20	120.6
PA	8	20	113.1
CA	8	20	109.8
CW	8	18	99.0
GC	8	16	95.8
WB	8	12	111.5
AD	8	12	101.8
BL	8	12	100.3
SK	8	12	96.4
WC	8	8	75.9
HW	8	8	74.4
RI	8	4	71.7
NM	8	0	57.9
Rd 10 Ladder
SY	9	32	151.9
GE	9	28	124.3
ES	9	26	98.3
ME	9	24	121.1
GW	9	24	120.7
PA	9	24	112.2
CA	9	24	109.0
CW	9	22	108.0
FR	9	20	110.1
GC	9	20	105.6
WB	9	16	123.9
AD	9	14	101.6
BL	9	14	100.3
SK	9	12	96.0
HW	9	12	76.6
WC	9	8	71.2
RI	9	4	65.6
NM	9	0	56.3
Rd 11 Ladder
SY	10	36	154.7
ES	10	30	103.3
GE	10	28	112.1
PA	10	28	111.1
CW	10	26	107.8
GW	10	24	115.5
ME	10	24	113.1
GC	10	24	112.7
FR	10	24	111.8
CA	10	24	102.1
WB	10	20	126.1
BL	10	18	116.6
AD	10	14	100.9
SK	10	12	94.1
HW	10	12	78.6
WC	10	12	77.1
RI	10	4	59.6
NM	10	0	56.8
Rd 12 Ladder
SY	11	40	150.1
ES	11	34	104.4
PA	11	32	117.4
ME	11	28	116.9
GW	11	28	114.6
GE	11	28	110.7
CW	11	28	107.1
CA	11	28	104.9
FR	11	26	110.6
GC	11	24	108.2
WB	11	20	121.3
AD	11	18	113.0
BL	11	18	111.6
HW	11	16	82.8
SK	11	12	90.4
WC	11	12	70.8
RI	11	4	61.6
NM	11	0	55.9
Rd 13 Ladder
SY	11	40	150.1
ES	12	34	102.8
GE	12	32	112.9
PA	12	32	111.7
CA	12	32	108.0
FR	12	30	121.4
GW	11	28	114.6
GC	12	28	108.6
CW	12	28	104.6
ME	12	28	104.3
WB	12	24	121.3
HW	12	20	86.7
BL	11	18	111.6
AD	12	18	108.6
SK	12	16	92.6
WC	12	12	71.7
RI	12	4	62.2
NM	11	0	55.9
Rd 14 Ladder
SY	12	44	148.8
CA	13	36	109.8
ES	13	34	100.2
PA	12	32	111.7
GE	13	32	108.9
CW	13	32	108.0
FR	12	30	121.4
GW	12	28	112.7
GC	13	28	107.9
ME	13	28	100.1
WB	13	24	114.9
HW	13	24	88.1
BL	12	22	115.5
SK	13	20	93.3
AD	13	18	107.1
WC	13	12	72.6
RI	13	8	64.9
NM	12	4	58.6
Rd 15 Ladder
SY	13	48	149.8
CA	13	36	109.8
CW	14	36	107.3
ES	13	34	100.2
GW	13	32	114.2
GE	13	32	108.9
PA	13	32	108.8
FR	13	30	111.1
WB	14	28	119.7
GC	13	28	107.9
ME	13	28	100.1
HW	14	28	92.7
BL	13	26	115.8
SK	14	20	92.2
AD	14	18	102.6
WC	13	12	72.6
RI	14	8	63.9
NM	13	4	61.9
Rd 16 Ladder
SY	14	52	148.8
CA	14	40	114.5
ES	14	38	102.7
CW	14	36	107.3
FR	14	34	112.3
GW	14	32	110.5
GE	14	32	102.9
PA	14	32	101.0
ME	14	32	100.4
BL	14	30	122.1
WB	14	28	119.7
GC	14	28	105.5
HW	14	28	92.7
SK	14	20	92.2
AD	14	18	102.6
WC	14	12	72.9
RI	14	8	63.9
NM	14	4	63.4
Rd 17 Ladder
SY	15	52	144.2
CA	15	44	118.5
FR	15	38	111.3
ES	15	38	99.0
GE	15	36	106.2
CW	15	36	105.8
PA	15	36	101.1
BL	15	34	121.0
WB	15	32	120.2
GW	15	32	108.4
GC	15	32	106.0
ME	15	32	99.9
HW	15	32	97.9
AD	15	22	103.8
SK	15	20	92.5
WC	15	12	70.4
RI	15	8	63.0
NM	15	4	64.1
Rd 18 Ladder
SY	16	52	140.8
CA	16	44	116.1
FR	16	42	115.1
ES	16	42	99.9
GE	16	40	109.7
PA	16	40	104.8
BL	16	38	120.4
GW	16	36	108.6
CW	16	36	104.5
ME	16	36	104.4
WB	16	32	114.8
GC	16	32	105.3
HW	16	32	94.2
SK	16	24	93.1
AD	16	22	102.6
WC	16	12	69.1
NM	16	8	66.1
RI	16	8	62.3
Rd 19 Ladder
SY	17	56	145.3
CA	17	44	114.1
GE	17	44	110.6
BL	17	42	120.0
FR	17	42	113.1
ES	17	42	98.8
GW	17	40	109.8
ME	17	40	105.5
PA	17	40	103.4
WB	17	36	114.9
GC	17	36	106.0
CW	17	36	102.9
HW	17	36	95.4
AD	17	26	105.0
SK	17	24	91.1
WC	17	12	70.3
NM	17	8	64.3
RI	17	8	63.2
Rd 20 Ladder
SY	18	56	142.4
CA	18	48	114.5
BL	18	46	119.0
FR	18	46	116.2
GW	18	44	112.2
GE	18	44	106.8
PA	18	44	106.0
ES	18	42	98.7
WB	18	40	117.7
ME	18	40	101.4
HW	18	40	100.1
GC	18	36	103.0
CW	18	36	98.4
AD	18	30	104.7
SK	18	28	96.6
WC	18	12	68.1
NM	18	8	65.3
RI	18	8	63.3
Rd 21 Ladder
SY	19	56	136.9
BL	19	50	120.1
FR	19	50	117.8
CA	19	48	112.9
GW	19	48	111.6
GE	19	48	109.1
PA	19	48	106.7
WB	19	44	119.8
HW	19	44	104.5
ES	19	42	95.6
ME	19	40	101.2
CW	19	40	100.1
GC	19	36	101.1
SK	19	32	100.5
AD	19	30	100.1
WC	19	12	68.1
NM	19	8	65.1
RI	19	8	63.7
Rd 22 Ladder
SY	20	56	126.1
BL	20	54	125.1
PA	20	52	113.6
GW	20	52	111.2
GE	20	52	108.9
FR	20	50	116.7
WB	20	48	122.4
CA	20	48	112.1
ES	20	46	95.9
HW	20	44	104.1
CW	20	44	100.2
ME	20	40	97.9
GC	20	36	100.4
SK	20	32	94.9
AD	20	30	99.8
WC	20	16	70.0
NM	20	12	67.0
RI	20	8	64.7
Rd 23 Ladder
SY	21	60	124.9
PA	21	56	113.3
GW	21	56	111.8
GE	21	56	109.2
BL	21	54	122.7
FR	21	50	115.2
WB	21	48	118.5
HW	21	48	108.5
CA	21	48	107.4
ES	21	46	96.0
CW	21	44	100.1
GC	21	40	100.5
ME	21	40	97.9
SK	21	36	98.1
AD	21	34	102.1
WC	21	20	71.7
NM	21	12	68.3
RI	21	8	64.1
Rd 24 Ladder
SY	22	64	126.3
PA	22	60	114.2
GW	22	60	111.7
GE	22	56	107.7
BL	22	54	121.6
WB	22	52	123.8
HW	22	52	111.8
CA	22	52	110.7
FR	22	50	113.7
CW	22	48	100.1
ES	22	46	94.2
ME	22	44	101.1
SK	22	40	99.3
GC	22	40	97.5
AD	22	34	100.8
WC	22	20	70.0
NM	22	12	66.1
RI	22	8	63.4
Rd 25 Ladder
SY	23	68	126.7
PA	23	64	114.8
GE	23	60	112.2
GW	23	60	109.1
BL	23	58	121.9
WB	23	56	125.1
HW	23	56	118.5
CA	23	52	110.2
CW	23	52	102.5
FR	23	50	111.9
ES	23	46	93.5
SK	23	44	99.4
GC	23	44	99.1
ME	23	44	98.5
AD	23	34	99.1
WC	23	20	68.1
NM	23	12	63.5
RI	23	8	63.7